_audit_creation_date      'Aug. 6, 2023'
_audit_creation_method    'Draft CIF file generated with Atomsk'
 
_chemical_name_common             ?
_chemical_melting_point           ?
_chemical_formula_iupac           'Hf500 O1000'
_chemical_formula_moiety          'Hf500 O1000'
_chemical_formula_sum             'Hf500 O1000'
_chemical_formula_weight          105244.000
_chemical_compound_source         ?
_chemical_absolute_configuration  ?
_exptl_crystal_description        'EDIT-ENTRY'
_diffrn_measurement_device_type   'EDIT-ENTRY'
 
_space_group_IT_number            1
_space_group_crystal_system       cubic
_symmetry_space_group_name_Hall   'P 1'
_symmetry_space_group_name_H-M    'P 1'
 
loop_
_space_group_symop_operation_xyz
'+x,+y,+z'
 
_cell_length_a                    24.0058
_cell_length_b                    24.0058
_cell_length_c                    24.0058
_cell_angle_alpha                 90.0000
_cell_angle_beta                  90.0000
_cell_angle_gamma                 90.0000
_cell_volume                      13834.0248
 
loop_
 _atom_site_label
 _atom_site_type_symbol
 _atom_site_fract_x
 _atom_site_fract_y
 _atom_site_fract_z
Hf1  Hf  1.052458  1.052458  1.052458
Hf2  Hf  0.108229  0.108229  1.052458
Hf3  Hf  1.052458  0.108229  0.108229
Hf4  Hf  0.108229  1.052458  0.108229
O1  O  0.055772  0.055772  0.055772
O2  O  0.055772  0.055772  0.160686
O3  O  0.055772  0.160686  0.055772
O4  O  0.160686  0.055772  0.055772
O5  O  0.160686  0.160686  0.160686
O6  O  0.160686  0.055772  0.160686
O7  O  0.160686  0.160686  0.055772
O8  O  0.055772  0.160686  0.160686
Hf5  Hf  1.052458  1.052458  0.213143
Hf6  Hf  0.108229  0.108229  0.213143
Hf7  Hf  1.052458  0.108229  0.318057
Hf8  Hf  0.108229  1.052458  0.318057
O9  O  0.055772  0.055772  0.265600
O10  O  0.055772  0.055772  0.370514
O11  O  0.055772  0.160686  0.265600
O12  O  0.160686  0.055772  0.265600
O13  O  0.160686  0.160686  0.370514
O14  O  0.160686  0.055772  0.370514
O15  O  0.160686  0.160686  0.265600
O16  O  0.055772  0.160686  0.370514
Hf9  Hf  1.052458  1.052458  0.422973
Hf10  Hf  0.108229  0.108229  0.422973
Hf11  Hf  1.052458  0.108229  0.527885
Hf12  Hf  0.108229  1.052458  0.527885
O17  O  0.055772  0.055772  0.475427
O18  O  0.055772  0.055772  0.580343
O19  O  0.055772  0.160686  0.475427
O20  O  0.160686  0.055772  0.475427
O21  O  0.160686  0.160686  0.580343
O22  O  0.160686  0.055772  0.580343
O23  O  0.160686  0.160686  0.475427
O24  O  0.055772  0.160686  0.580343
Hf13  Hf  1.052458  1.052458  0.632801
Hf14  Hf  0.108229  0.108229  0.632801
Hf15  Hf  1.052458  0.108229  0.737713
Hf16  Hf  0.108229  1.052458  0.737713
O25  O  0.055772  0.055772  0.685255
O26  O  0.055772  0.055772  0.790172
O27  O  0.055772  0.160686  0.685255
O28  O  0.160686  0.055772  0.685255
O29  O  0.160686  0.160686  0.790172
O30  O  0.160686  0.055772  0.790172
O31  O  0.160686  0.160686  0.685255
O32  O  0.055772  0.160686  0.790172
Hf17  Hf  1.052458  1.052458  0.842630
Hf18  Hf  0.108229  0.108229  0.842630
Hf19  Hf  1.052458  0.108229  0.947542
Hf20  Hf  0.108229  1.052458  0.947542
O33  O  0.055772  0.055772  0.895084
O34  O  0.055772  0.055772  1.000000
O35  O  0.055772  0.160686  0.895084
O36  O  0.160686  0.055772  0.895084
O37  O  0.160686  0.160686  1.000000
O38  O  0.160686  0.055772  1.000000
O39  O  0.160686  0.160686  0.895084
O40  O  0.055772  0.160686  1.000000
Hf21  Hf  1.052458  0.213143  1.052458
Hf22  Hf  0.108229  0.318057  1.052458
Hf23  Hf  1.052458  0.318057  0.108229
Hf24  Hf  0.108229  0.213143  0.108229
O41  O  0.055772  0.265600  0.055772
O42  O  0.055772  0.265600  0.160686
O43  O  0.055772  0.370514  0.055772
O44  O  0.160686  0.265600  0.055772
O45  O  0.160686  0.370514  0.160686
O46  O  0.160686  0.265600  0.160686
O47  O  0.160686  0.370514  0.055772
O48  O  0.055772  0.370514  0.160686
Hf25  Hf  1.052458  0.213143  0.213143
Hf26  Hf  0.108229  0.318057  0.213143
Hf27  Hf  1.052458  0.318057  0.318057
Hf28  Hf  0.108229  0.213143  0.318057
O49  O  0.055772  0.265600  0.265600
O50  O  0.055772  0.265600  0.370514
O51  O  0.055772  0.370514  0.265600
O52  O  0.160686  0.265600  0.265600
O53  O  0.160686  0.370514  0.370514
O54  O  0.160686  0.265600  0.370514
O55  O  0.160686  0.370514  0.265600
O56  O  0.055772  0.370514  0.370514
Hf29  Hf  1.052458  0.213143  0.422973
Hf30  Hf  0.108229  0.318057  0.422973
Hf31  Hf  1.052458  0.318057  0.527885
Hf32  Hf  0.108229  0.213143  0.527885
O57  O  0.055772  0.265600  0.475427
O58  O  0.055772  0.265600  0.580343
O59  O  0.055772  0.370514  0.475427
O60  O  0.160686  0.265600  0.475427
O61  O  0.160686  0.370514  0.580343
O62  O  0.160686  0.265600  0.580343
O63  O  0.160686  0.370514  0.475427
O64  O  0.055772  0.370514  0.580343
Hf33  Hf  1.052458  0.213143  0.632801
Hf34  Hf  0.108229  0.318057  0.632801
Hf35  Hf  1.052458  0.318057  0.737713
Hf36  Hf  0.108229  0.213143  0.737713
O65  O  0.055772  0.265600  0.685255
O66  O  0.055772  0.265600  0.790172
O67  O  0.055772  0.370514  0.685255
O68  O  0.160686  0.265600  0.685255
O69  O  0.160686  0.370514  0.790172
O70  O  0.160686  0.265600  0.790172
O71  O  0.160686  0.370514  0.685255
O72  O  0.055772  0.370514  0.790172
Hf37  Hf  1.052458  0.213143  0.842630
Hf38  Hf  0.108229  0.318057  0.842630
Hf39  Hf  1.052458  0.318057  0.947542
Hf40  Hf  0.108229  0.213143  0.947542
O73  O  0.055772  0.265600  0.895084
O74  O  0.055772  0.265600  1.000000
O75  O  0.055772  0.370514  0.895084
O76  O  0.160686  0.265600  0.895084
O77  O  0.160686  0.370514  1.000000
O78  O  0.160686  0.265600  1.000000
O79  O  0.160686  0.370514  0.895084
O80  O  0.055772  0.370514  1.000000
Hf41  Hf  1.052458  0.422973  1.052458
Hf42  Hf  0.108229  0.527885  1.052458
Hf43  Hf  1.052458  0.527885  0.108229
Hf44  Hf  0.108229  0.422973  0.108229
O81  O  0.055772  0.475427  0.055772
O82  O  0.055772  0.475427  0.160686
O83  O  0.055772  0.580343  0.055772
O84  O  0.160686  0.475427  0.055772
O85  O  0.160686  0.580343  0.160686
O86  O  0.160686  0.475427  0.160686
O87  O  0.160686  0.580343  0.055772
O88  O  0.055772  0.580343  0.160686
Hf45  Hf  1.052458  0.422973  0.213143
Hf46  Hf  0.108229  0.527885  0.213143
Hf47  Hf  1.052458  0.527885  0.318057
Hf48  Hf  0.108229  0.422973  0.318057
O89  O  0.055772  0.475427  0.265600
O90  O  0.055772  0.475427  0.370514
O91  O  0.055772  0.580343  0.265600
O92  O  0.160686  0.475427  0.265600
O93  O  0.160686  0.580343  0.370514
O94  O  0.160686  0.475427  0.370514
O95  O  0.160686  0.580343  0.265600
O96  O  0.055772  0.580343  0.370514
Hf49  Hf  1.052458  0.422973  0.422973
Hf50  Hf  0.108229  0.527885  0.422973
Hf51  Hf  1.052458  0.527885  0.527885
Hf52  Hf  0.108229  0.422973  0.527885
O97  O  0.055772  0.475427  0.475427
O98  O  0.055772  0.475427  0.580343
O99  O  0.055772  0.580343  0.475427
O100  O  0.160686  0.475427  0.475427
O101  O  0.160686  0.580343  0.580343
O102  O  0.160686  0.475427  0.580343
O103  O  0.160686  0.580343  0.475427
O104  O  0.055772  0.580343  0.580343
Hf53  Hf  1.052458  0.422973  0.632801
Hf54  Hf  0.108229  0.527885  0.632801
Hf55  Hf  1.052458  0.527885  0.737713
Hf56  Hf  0.108229  0.422973  0.737713
O105  O  0.055772  0.475427  0.685255
O106  O  0.055772  0.475427  0.790172
O107  O  0.055772  0.580343  0.685255
O108  O  0.160686  0.475427  0.685255
O109  O  0.160686  0.580343  0.790172
O110  O  0.160686  0.475427  0.790172
O111  O  0.160686  0.580343  0.685255
O112  O  0.055772  0.580343  0.790172
Hf57  Hf  1.052458  0.422973  0.842630
Hf58  Hf  0.108229  0.527885  0.842630
Hf59  Hf  1.052458  0.527885  0.947542
Hf60  Hf  0.108229  0.422973  0.947542
O113  O  0.055772  0.475427  0.895084
O114  O  0.055772  0.475427  1.000000
O115  O  0.055772  0.580343  0.895084
O116  O  0.160686  0.475427  0.895084
O117  O  0.160686  0.580343  1.000000
O118  O  0.160686  0.475427  1.000000
O119  O  0.160686  0.580343  0.895084
O120  O  0.055772  0.580343  1.000000
Hf61  Hf  1.052458  0.632801  1.052458
Hf62  Hf  0.108229  0.737713  1.052458
Hf63  Hf  1.052458  0.737713  0.108229
Hf64  Hf  0.108229  0.632801  0.108229
O121  O  0.055772  0.685255  0.055772
O122  O  0.055772  0.685255  0.160686
O123  O  0.055772  0.790172  0.055772
O124  O  0.160686  0.685255  0.055772
O125  O  0.160686  0.790172  0.160686
O126  O  0.160686  0.685255  0.160686
O127  O  0.160686  0.790172  0.055772
O128  O  0.055772  0.790172  0.160686
Hf65  Hf  1.052458  0.632801  0.213143
Hf66  Hf  0.108229  0.737713  0.213143
Hf67  Hf  1.052458  0.737713  0.318057
Hf68  Hf  0.108229  0.632801  0.318057
O129  O  0.055772  0.685255  0.265600
O130  O  0.055772  0.685255  0.370514
O131  O  0.055772  0.790172  0.265600
O132  O  0.160686  0.685255  0.265600
O133  O  0.160686  0.790172  0.370514
O134  O  0.160686  0.685255  0.370514
O135  O  0.160686  0.790172  0.265600
O136  O  0.055772  0.790172  0.370514
Hf69  Hf  1.052458  0.632801  0.422973
Hf70  Hf  0.108229  0.737713  0.422973
Hf71  Hf  1.052458  0.737713  0.527885
Hf72  Hf  0.108229  0.632801  0.527885
O137  O  0.055772  0.685255  0.475427
O138  O  0.055772  0.685255  0.580343
O139  O  0.055772  0.790172  0.475427
O140  O  0.160686  0.685255  0.475427
O141  O  0.160686  0.790172  0.580343
O142  O  0.160686  0.685255  0.580343
O143  O  0.160686  0.790172  0.475427
O144  O  0.055772  0.790172  0.580343
Hf73  Hf  1.052458  0.632801  0.632801
Hf74  Hf  0.108229  0.737713  0.632801
Hf75  Hf  1.052458  0.737713  0.737713
Hf76  Hf  0.108229  0.632801  0.737713
O145  O  0.055772  0.685255  0.685255
O146  O  0.055772  0.685255  0.790172
O147  O  0.055772  0.790172  0.685255
O148  O  0.160686  0.685255  0.685255
O149  O  0.160686  0.790172  0.790172
O150  O  0.160686  0.685255  0.790172
O151  O  0.160686  0.790172  0.685255
O152  O  0.055772  0.790172  0.790172
Hf77  Hf  1.052458  0.632801  0.842630
Hf78  Hf  0.108229  0.737713  0.842630
Hf79  Hf  1.052458  0.737713  0.947542
Hf80  Hf  0.108229  0.632801  0.947542
O153  O  0.055772  0.685255  0.895084
O154  O  0.055772  0.685255  1.000000
O155  O  0.055772  0.790172  0.895084
O156  O  0.160686  0.685255  0.895084
O157  O  0.160686  0.790172  1.000000
O158  O  0.160686  0.685255  1.000000
O159  O  0.160686  0.790172  0.895084
O160  O  0.055772  0.790172  1.000000
Hf81  Hf  1.052458  0.842630  1.052458
Hf82  Hf  0.108229  0.947542  1.052458
Hf83  Hf  1.052458  0.947542  0.108229
Hf84  Hf  0.108229  0.842630  0.108229
O161  O  0.055772  0.895084  0.055772
O162  O  0.055772  0.895084  0.160686
O163  O  0.055772  1.000000  0.055772
O164  O  0.160686  0.895084  0.055772
O165  O  0.160686  1.000000  0.160686
O166  O  0.160686  0.895084  0.160686
O167  O  0.160686  1.000000  0.055772
O168  O  0.055772  1.000000  0.160686
Hf85  Hf  1.052458  0.842630  0.213143
Hf86  Hf  0.108229  0.947542  0.213143
Hf87  Hf  1.052458  0.947542  0.318057
Hf88  Hf  0.108229  0.842630  0.318057
O169  O  0.055772  0.895084  0.265600
O170  O  0.055772  0.895084  0.370514
O171  O  0.055772  1.000000  0.265600
O172  O  0.160686  0.895084  0.265600
O173  O  0.160686  1.000000  0.370514
O174  O  0.160686  0.895084  0.370514
O175  O  0.160686  1.000000  0.265600
O176  O  0.055772  1.000000  0.370514
Hf89  Hf  1.052458  0.842630  0.422973
Hf90  Hf  0.108229  0.947542  0.422973
Hf91  Hf  1.052458  0.947542  0.527885
Hf92  Hf  0.108229  0.842630  0.527885
O177  O  0.055772  0.895084  0.475427
O178  O  0.055772  0.895084  0.580343
O179  O  0.055772  1.000000  0.475427
O180  O  0.160686  0.895084  0.475427
O181  O  0.160686  1.000000  0.580343
O182  O  0.160686  0.895084  0.580343
O183  O  0.160686  1.000000  0.475427
O184  O  0.055772  1.000000  0.580343
Hf93  Hf  1.052458  0.842630  0.632801
Hf94  Hf  0.108229  0.947542  0.632801
Hf95  Hf  1.052458  0.947542  0.737713
Hf96  Hf  0.108229  0.842630  0.737713
O185  O  0.055772  0.895084  0.685255
O186  O  0.055772  0.895084  0.790172
O187  O  0.055772  1.000000  0.685255
O188  O  0.160686  0.895084  0.685255
O189  O  0.160686  1.000000  0.790172
O190  O  0.160686  0.895084  0.790172
O191  O  0.160686  1.000000  0.685255
O192  O  0.055772  1.000000  0.790172
Hf97  Hf  1.052458  0.842630  0.842630
Hf98  Hf  0.108229  0.947542  0.842630
Hf99  Hf  1.052458  0.947542  0.947542
Hf100  Hf  0.108229  0.842630  0.947542
O193  O  0.055772  0.895084  0.895084
O194  O  0.055772  0.895084  1.000000
O195  O  0.055772  1.000000  0.895084
O196  O  0.160686  0.895084  0.895084
O197  O  0.160686  1.000000  1.000000
O198  O  0.160686  0.895084  1.000000
O199  O  0.160686  1.000000  0.895084
O200  O  0.055772  1.000000  1.000000
Hf101  Hf  0.213143  1.052458  1.052458
Hf102  Hf  0.318057  0.108229  1.052458
Hf103  Hf  0.213143  0.108229  0.108229
Hf104  Hf  0.318057  1.052458  0.108229
O201  O  0.265600  0.055772  0.055772
O202  O  0.265600  0.055772  0.160686
O203  O  0.265600  0.160686  0.055772
O204  O  0.370514  0.055772  0.055772
O205  O  0.370514  0.160686  0.160686
O206  O  0.370514  0.055772  0.160686
O207  O  0.370514  0.160686  0.055772
O208  O  0.265600  0.160686  0.160686
Hf105  Hf  0.213143  1.052458  0.213143
Hf106  Hf  0.318057  0.108229  0.213143
Hf107  Hf  0.213143  0.108229  0.318057
Hf108  Hf  0.318057  1.052458  0.318057
O209  O  0.265600  0.055772  0.265600
O210  O  0.265600  0.055772  0.370514
O211  O  0.265600  0.160686  0.265600
O212  O  0.370514  0.055772  0.265600
O213  O  0.370514  0.160686  0.370514
O214  O  0.370514  0.055772  0.370514
O215  O  0.370514  0.160686  0.265600
O216  O  0.265600  0.160686  0.370514
Hf109  Hf  0.213143  1.052458  0.422973
Hf110  Hf  0.318057  0.108229  0.422973
Hf111  Hf  0.213143  0.108229  0.527885
Hf112  Hf  0.318057  1.052458  0.527885
O217  O  0.265600  0.055772  0.475427
O218  O  0.265600  0.055772  0.580343
O219  O  0.265600  0.160686  0.475427
O220  O  0.370514  0.055772  0.475427
O221  O  0.370514  0.160686  0.580343
O222  O  0.370514  0.055772  0.580343
O223  O  0.370514  0.160686  0.475427
O224  O  0.265600  0.160686  0.580343
Hf113  Hf  0.213143  1.052458  0.632801
Hf114  Hf  0.318057  0.108229  0.632801
Hf115  Hf  0.213143  0.108229  0.737713
Hf116  Hf  0.318057  1.052458  0.737713
O225  O  0.265600  0.055772  0.685255
O226  O  0.265600  0.055772  0.790172
O227  O  0.265600  0.160686  0.685255
O228  O  0.370514  0.055772  0.685255
O229  O  0.370514  0.160686  0.790172
O230  O  0.370514  0.055772  0.790172
O231  O  0.370514  0.160686  0.685255
O232  O  0.265600  0.160686  0.790172
Hf117  Hf  0.213143  1.052458  0.842630
Hf118  Hf  0.318057  0.108229  0.842630
Hf119  Hf  0.213143  0.108229  0.947542
Hf120  Hf  0.318057  1.052458  0.947542
O233  O  0.265600  0.055772  0.895084
O234  O  0.265600  0.055772  1.000000
O235  O  0.265600  0.160686  0.895084
O236  O  0.370514  0.055772  0.895084
O237  O  0.370514  0.160686  1.000000
O238  O  0.370514  0.055772  1.000000
O239  O  0.370514  0.160686  0.895084
O240  O  0.265600  0.160686  1.000000
Hf121  Hf  0.213143  0.213143  1.052458
Hf122  Hf  0.318057  0.318057  1.052458
Hf123  Hf  0.213143  0.318057  0.108229
Hf124  Hf  0.318057  0.213143  0.108229
O241  O  0.265600  0.265600  0.055772
O242  O  0.265600  0.265600  0.160686
O243  O  0.265600  0.370514  0.055772
O244  O  0.370514  0.265600  0.055772
O245  O  0.370514  0.370514  0.160686
O246  O  0.370514  0.265600  0.160686
O247  O  0.370514  0.370514  0.055772
O248  O  0.265600  0.370514  0.160686
Hf125  Hf  0.213143  0.213143  0.213143
Hf126  Hf  0.318057  0.318057  0.213143
Hf127  Hf  0.213143  0.318057  0.318057
Hf128  Hf  0.318057  0.213143  0.318057
O249  O  0.265600  0.265600  0.265600
O250  O  0.265600  0.265600  0.370514
O251  O  0.265600  0.370514  0.265600
O252  O  0.370514  0.265600  0.265600
O253  O  0.370514  0.370514  0.370514
O254  O  0.370514  0.265600  0.370514
O255  O  0.370514  0.370514  0.265600
O256  O  0.265600  0.370514  0.370514
Hf129  Hf  0.213143  0.213143  0.422973
Hf130  Hf  0.318057  0.318057  0.422973
Hf131  Hf  0.213143  0.318057  0.527885
Hf132  Hf  0.318057  0.213143  0.527885
O257  O  0.265600  0.265600  0.475427
O258  O  0.265600  0.265600  0.580343
O259  O  0.265600  0.370514  0.475427
O260  O  0.370514  0.265600  0.475427
O261  O  0.370514  0.370514  0.580343
O262  O  0.370514  0.265600  0.580343
O263  O  0.370514  0.370514  0.475427
O264  O  0.265600  0.370514  0.580343
Hf133  Hf  0.213143  0.213143  0.632801
Hf134  Hf  0.318057  0.318057  0.632801
Hf135  Hf  0.213143  0.318057  0.737713
Hf136  Hf  0.318057  0.213143  0.737713
O265  O  0.265600  0.265600  0.685255
O266  O  0.265600  0.265600  0.790172
O267  O  0.265600  0.370514  0.685255
O268  O  0.370514  0.265600  0.685255
O269  O  0.370514  0.370514  0.790172
O270  O  0.370514  0.265600  0.790172
O271  O  0.370514  0.370514  0.685255
O272  O  0.265600  0.370514  0.790172
Hf137  Hf  0.213143  0.213143  0.842630
Hf138  Hf  0.318057  0.318057  0.842630
Hf139  Hf  0.213143  0.318057  0.947542
Hf140  Hf  0.318057  0.213143  0.947542
O273  O  0.265600  0.265600  0.895084
O274  O  0.265600  0.265600  1.000000
O275  O  0.265600  0.370514  0.895084
O276  O  0.370514  0.265600  0.895084
O277  O  0.370514  0.370514  1.000000
O278  O  0.370514  0.265600  1.000000
O279  O  0.370514  0.370514  0.895084
O280  O  0.265600  0.370514  1.000000
Hf141  Hf  0.213143  0.422973  1.052458
Hf142  Hf  0.318057  0.527885  1.052458
Hf143  Hf  0.213143  0.527885  0.108229
Hf144  Hf  0.318057  0.422973  0.108229
O281  O  0.265600  0.475427  0.055772
O282  O  0.265600  0.475427  0.160686
O283  O  0.265600  0.580343  0.055772
O284  O  0.370514  0.475427  0.055772
O285  O  0.370514  0.580343  0.160686
O286  O  0.370514  0.475427  0.160686
O287  O  0.370514  0.580343  0.055772
O288  O  0.265600  0.580343  0.160686
Hf145  Hf  0.213143  0.422973  0.213143
Hf146  Hf  0.318057  0.527885  0.213143
Hf147  Hf  0.213143  0.527885  0.318057
Hf148  Hf  0.318057  0.422973  0.318057
O289  O  0.265600  0.475427  0.265600
O290  O  0.265600  0.475427  0.370514
O291  O  0.265600  0.580343  0.265600
O292  O  0.370514  0.475427  0.265600
O293  O  0.370514  0.580343  0.370514
O294  O  0.370514  0.475427  0.370514
O295  O  0.370514  0.580343  0.265600
O296  O  0.265600  0.580343  0.370514
Hf149  Hf  0.213143  0.422973  0.422973
Hf150  Hf  0.318057  0.527885  0.422973
Hf151  Hf  0.213143  0.527885  0.527885
Hf152  Hf  0.318057  0.422973  0.527885
O297  O  0.265600  0.475427  0.475427
O298  O  0.265600  0.475427  0.580343
O299  O  0.265600  0.580343  0.475427
O300  O  0.370514  0.475427  0.475427
O301  O  0.370514  0.580343  0.580343
O302  O  0.370514  0.475427  0.580343
O303  O  0.370514  0.580343  0.475427
O304  O  0.265600  0.580343  0.580343
Hf153  Hf  0.213143  0.422973  0.632801
Hf154  Hf  0.318057  0.527885  0.632801
Hf155  Hf  0.213143  0.527885  0.737713
Hf156  Hf  0.318057  0.422973  0.737713
O305  O  0.265600  0.475427  0.685255
O306  O  0.265600  0.475427  0.790172
O307  O  0.265600  0.580343  0.685255
O308  O  0.370514  0.475427  0.685255
O309  O  0.370514  0.580343  0.790172
O310  O  0.370514  0.475427  0.790172
O311  O  0.370514  0.580343  0.685255
O312  O  0.265600  0.580343  0.790172
Hf157  Hf  0.213143  0.422973  0.842630
Hf158  Hf  0.318057  0.527885  0.842630
Hf159  Hf  0.213143  0.527885  0.947542
Hf160  Hf  0.318057  0.422973  0.947542
O313  O  0.265600  0.475427  0.895084
O314  O  0.265600  0.475427  1.000000
O315  O  0.265600  0.580343  0.895084
O316  O  0.370514  0.475427  0.895084
O317  O  0.370514  0.580343  1.000000
O318  O  0.370514  0.475427  1.000000
O319  O  0.370514  0.580343  0.895084
O320  O  0.265600  0.580343  1.000000
Hf161  Hf  0.213143  0.632801  1.052458
Hf162  Hf  0.318057  0.737713  1.052458
Hf163  Hf  0.213143  0.737713  0.108229
Hf164  Hf  0.318057  0.632801  0.108229
O321  O  0.265600  0.685255  0.055772
O322  O  0.265600  0.685255  0.160686
O323  O  0.265600  0.790172  0.055772
O324  O  0.370514  0.685255  0.055772
O325  O  0.370514  0.790172  0.160686
O326  O  0.370514  0.685255  0.160686
O327  O  0.370514  0.790172  0.055772
O328  O  0.265600  0.790172  0.160686
Hf165  Hf  0.213143  0.632801  0.213143
Hf166  Hf  0.318057  0.737713  0.213143
Hf167  Hf  0.213143  0.737713  0.318057
Hf168  Hf  0.318057  0.632801  0.318057
O329  O  0.265600  0.685255  0.265600
O330  O  0.265600  0.685255  0.370514
O331  O  0.265600  0.790172  0.265600
O332  O  0.370514  0.685255  0.265600
O333  O  0.370514  0.790172  0.370514
O334  O  0.370514  0.685255  0.370514
O335  O  0.370514  0.790172  0.265600
O336  O  0.265600  0.790172  0.370514
Hf169  Hf  0.213143  0.632801  0.422973
Hf170  Hf  0.318057  0.737713  0.422973
Hf171  Hf  0.213143  0.737713  0.527885
Hf172  Hf  0.318057  0.632801  0.527885
O337  O  0.265600  0.685255  0.475427
O338  O  0.265600  0.685255  0.580343
O339  O  0.265600  0.790172  0.475427
O340  O  0.370514  0.685255  0.475427
O341  O  0.370514  0.790172  0.580343
O342  O  0.370514  0.685255  0.580343
O343  O  0.370514  0.790172  0.475427
O344  O  0.265600  0.790172  0.580343
Hf173  Hf  0.213143  0.632801  0.632801
Hf174  Hf  0.318057  0.737713  0.632801
Hf175  Hf  0.213143  0.737713  0.737713
Hf176  Hf  0.318057  0.632801  0.737713
O345  O  0.265600  0.685255  0.685255
O346  O  0.265600  0.685255  0.790172
O347  O  0.265600  0.790172  0.685255
O348  O  0.370514  0.685255  0.685255
O349  O  0.370514  0.790172  0.790172
O350  O  0.370514  0.685255  0.790172
O351  O  0.370514  0.790172  0.685255
O352  O  0.265600  0.790172  0.790172
Hf177  Hf  0.213143  0.632801  0.842630
Hf178  Hf  0.318057  0.737713  0.842630
Hf179  Hf  0.213143  0.737713  0.947542
Hf180  Hf  0.318057  0.632801  0.947542
O353  O  0.265600  0.685255  0.895084
O354  O  0.265600  0.685255  1.000000
O355  O  0.265600  0.790172  0.895084
O356  O  0.370514  0.685255  0.895084
O357  O  0.370514  0.790172  1.000000
O358  O  0.370514  0.685255  1.000000
O359  O  0.370514  0.790172  0.895084
O360  O  0.265600  0.790172  1.000000
Hf181  Hf  0.213143  0.842630  1.052458
Hf182  Hf  0.318057  0.947542  1.052458
Hf183  Hf  0.213143  0.947542  0.108229
Hf184  Hf  0.318057  0.842630  0.108229
O361  O  0.265600  0.895084  0.055772
O362  O  0.265600  0.895084  0.160686
O363  O  0.265600  1.000000  0.055772
O364  O  0.370514  0.895084  0.055772
O365  O  0.370514  1.000000  0.160686
O366  O  0.370514  0.895084  0.160686
O367  O  0.370514  1.000000  0.055772
O368  O  0.265600  1.000000  0.160686
Hf185  Hf  0.213143  0.842630  0.213143
Hf186  Hf  0.318057  0.947542  0.213143
Hf187  Hf  0.213143  0.947542  0.318057
Hf188  Hf  0.318057  0.842630  0.318057
O369  O  0.265600  0.895084  0.265600
O370  O  0.265600  0.895084  0.370514
O371  O  0.265600  1.000000  0.265600
O372  O  0.370514  0.895084  0.265600
O373  O  0.370514  1.000000  0.370514
O374  O  0.370514  0.895084  0.370514
O375  O  0.370514  1.000000  0.265600
O376  O  0.265600  1.000000  0.370514
Hf189  Hf  0.213143  0.842630  0.422973
Hf190  Hf  0.318057  0.947542  0.422973
Hf191  Hf  0.213143  0.947542  0.527885
Hf192  Hf  0.318057  0.842630  0.527885
O377  O  0.265600  0.895084  0.475427
O378  O  0.265600  0.895084  0.580343
O379  O  0.265600  1.000000  0.475427
O380  O  0.370514  0.895084  0.475427
O381  O  0.370514  1.000000  0.580343
O382  O  0.370514  0.895084  0.580343
O383  O  0.370514  1.000000  0.475427
O384  O  0.265600  1.000000  0.580343
Hf193  Hf  0.213143  0.842630  0.632801
Hf194  Hf  0.318057  0.947542  0.632801
Hf195  Hf  0.213143  0.947542  0.737713
Hf196  Hf  0.318057  0.842630  0.737713
O385  O  0.265600  0.895084  0.685255
O386  O  0.265600  0.895084  0.790172
O387  O  0.265600  1.000000  0.685255
O388  O  0.370514  0.895084  0.685255
O389  O  0.370514  1.000000  0.790172
O390  O  0.370514  0.895084  0.790172
O391  O  0.370514  1.000000  0.685255
O392  O  0.265600  1.000000  0.790172
Hf197  Hf  0.213143  0.842630  0.842630
Hf198  Hf  0.318057  0.947542  0.842630
Hf199  Hf  0.213143  0.947542  0.947542
Hf200  Hf  0.318057  0.842630  0.947542
O393  O  0.265600  0.895084  0.895084
O394  O  0.265600  0.895084  1.000000
O395  O  0.265600  1.000000  0.895084
O396  O  0.370514  0.895084  0.895084
O397  O  0.370514  1.000000  1.000000
O398  O  0.370514  0.895084  1.000000
O399  O  0.370514  1.000000  0.895084
O400  O  0.265600  1.000000  1.000000
Hf201  Hf  0.422973  1.052458  1.052458
Hf202  Hf  0.527885  0.108229  1.052458
Hf203  Hf  0.422973  0.108229  0.108229
Hf204  Hf  0.527885  1.052458  0.108229
O401  O  0.475427  0.055772  0.055772
O402  O  0.475427  0.055772  0.160686
O403  O  0.475427  0.160686  0.055772
O404  O  0.580343  0.055772  0.055772
O405  O  0.580343  0.160686  0.160686
O406  O  0.580343  0.055772  0.160686
O407  O  0.580343  0.160686  0.055772
O408  O  0.475427  0.160686  0.160686
Hf205  Hf  0.422973  1.052458  0.213143
Hf206  Hf  0.527885  0.108229  0.213143
Hf207  Hf  0.422973  0.108229  0.318057
Hf208  Hf  0.527885  1.052458  0.318057
O409  O  0.475427  0.055772  0.265600
O410  O  0.475427  0.055772  0.370514
O411  O  0.475427  0.160686  0.265600
O412  O  0.580343  0.055772  0.265600
O413  O  0.580343  0.160686  0.370514
O414  O  0.580343  0.055772  0.370514
O415  O  0.580343  0.160686  0.265600
O416  O  0.475427  0.160686  0.370514
Hf209  Hf  0.422973  1.052458  0.422973
Hf210  Hf  0.527885  0.108229  0.422973
Hf211  Hf  0.422973  0.108229  0.527885
Hf212  Hf  0.527885  1.052458  0.527885
O417  O  0.475427  0.055772  0.475427
O418  O  0.475427  0.055772  0.580343
O419  O  0.475427  0.160686  0.475427
O420  O  0.580343  0.055772  0.475427
O421  O  0.580343  0.160686  0.580343
O422  O  0.580343  0.055772  0.580343
O423  O  0.580343  0.160686  0.475427
O424  O  0.475427  0.160686  0.580343
Hf213  Hf  0.422973  1.052458  0.632801
Hf214  Hf  0.527885  0.108229  0.632801
Hf215  Hf  0.422973  0.108229  0.737713
Hf216  Hf  0.527885  1.052458  0.737713
O425  O  0.475427  0.055772  0.685255
O426  O  0.475427  0.055772  0.790172
O427  O  0.475427  0.160686  0.685255
O428  O  0.580343  0.055772  0.685255
O429  O  0.580343  0.160686  0.790172
O430  O  0.580343  0.055772  0.790172
O431  O  0.580343  0.160686  0.685255
O432  O  0.475427  0.160686  0.790172
Hf217  Hf  0.422973  1.052458  0.842630
Hf218  Hf  0.527885  0.108229  0.842630
Hf219  Hf  0.422973  0.108229  0.947542
Hf220  Hf  0.527885  1.052458  0.947542
O433  O  0.475427  0.055772  0.895084
O434  O  0.475427  0.055772  1.000000
O435  O  0.475427  0.160686  0.895084
O436  O  0.580343  0.055772  0.895084
O437  O  0.580343  0.160686  1.000000
O438  O  0.580343  0.055772  1.000000
O439  O  0.580343  0.160686  0.895084
O440  O  0.475427  0.160686  1.000000
Hf221  Hf  0.422973  0.213143  1.052458
Hf222  Hf  0.527885  0.318057  1.052458
Hf223  Hf  0.422973  0.318057  0.108229
Hf224  Hf  0.527885  0.213143  0.108229
O441  O  0.475427  0.265600  0.055772
O442  O  0.475427  0.265600  0.160686
O443  O  0.475427  0.370514  0.055772
O444  O  0.580343  0.265600  0.055772
O445  O  0.580343  0.370514  0.160686
O446  O  0.580343  0.265600  0.160686
O447  O  0.580343  0.370514  0.055772
O448  O  0.475427  0.370514  0.160686
Hf225  Hf  0.422973  0.213143  0.213143
Hf226  Hf  0.527885  0.318057  0.213143
Hf227  Hf  0.422973  0.318057  0.318057
Hf228  Hf  0.527885  0.213143  0.318057
O449  O  0.475427  0.265600  0.265600
O450  O  0.475427  0.265600  0.370514
O451  O  0.475427  0.370514  0.265600
O452  O  0.580343  0.265600  0.265600
O453  O  0.580343  0.370514  0.370514
O454  O  0.580343  0.265600  0.370514
O455  O  0.580343  0.370514  0.265600
O456  O  0.475427  0.370514  0.370514
Hf229  Hf  0.422973  0.213143  0.422973
Hf230  Hf  0.527885  0.318057  0.422973
Hf231  Hf  0.422973  0.318057  0.527885
Hf232  Hf  0.527885  0.213143  0.527885
O457  O  0.475427  0.265600  0.475427
O458  O  0.475427  0.265600  0.580343
O459  O  0.475427  0.370514  0.475427
O460  O  0.580343  0.265600  0.475427
O461  O  0.580343  0.370514  0.580343
O462  O  0.580343  0.265600  0.580343
O463  O  0.580343  0.370514  0.475427
O464  O  0.475427  0.370514  0.580343
Hf233  Hf  0.422973  0.213143  0.632801
Hf234  Hf  0.527885  0.318057  0.632801
Hf235  Hf  0.422973  0.318057  0.737713
Hf236  Hf  0.527885  0.213143  0.737713
O465  O  0.475427  0.265600  0.685255
O466  O  0.475427  0.265600  0.790172
O467  O  0.475427  0.370514  0.685255
O468  O  0.580343  0.265600  0.685255
O469  O  0.580343  0.370514  0.790172
O470  O  0.580343  0.265600  0.790172
O471  O  0.580343  0.370514  0.685255
O472  O  0.475427  0.370514  0.790172
Hf237  Hf  0.422973  0.213143  0.842630
Hf238  Hf  0.527885  0.318057  0.842630
Hf239  Hf  0.422973  0.318057  0.947542
Hf240  Hf  0.527885  0.213143  0.947542
O473  O  0.475427  0.265600  0.895084
O474  O  0.475427  0.265600  1.000000
O475  O  0.475427  0.370514  0.895084
O476  O  0.580343  0.265600  0.895084
O477  O  0.580343  0.370514  1.000000
O478  O  0.580343  0.265600  1.000000
O479  O  0.580343  0.370514  0.895084
O480  O  0.475427  0.370514  1.000000
Hf241  Hf  0.422973  0.422973  1.052458
Hf242  Hf  0.527885  0.527885  1.052458
Hf243  Hf  0.422973  0.527885  0.108229
Hf244  Hf  0.527885  0.422973  0.108229
O481  O  0.475427  0.475427  0.055772
O482  O  0.475427  0.475427  0.160686
O483  O  0.475427  0.580343  0.055772
O484  O  0.580343  0.475427  0.055772
O485  O  0.580343  0.580343  0.160686
O486  O  0.580343  0.475427  0.160686
O487  O  0.580343  0.580343  0.055772
O488  O  0.475427  0.580343  0.160686
Hf245  Hf  0.422973  0.422973  0.213143
Hf246  Hf  0.527885  0.527885  0.213143
Hf247  Hf  0.422973  0.527885  0.318057
Hf248  Hf  0.527885  0.422973  0.318057
O489  O  0.475427  0.475427  0.265600
O490  O  0.475427  0.475427  0.370514
O491  O  0.475427  0.580343  0.265600
O492  O  0.580343  0.475427  0.265600
O493  O  0.580343  0.580343  0.370514
O494  O  0.580343  0.475427  0.370514
O495  O  0.580343  0.580343  0.265600
O496  O  0.475427  0.580343  0.370514
Hf249  Hf  0.422973  0.422973  0.422973
Hf250  Hf  0.527885  0.527885  0.422973
Hf251  Hf  0.422973  0.527885  0.527885
Hf252  Hf  0.527885  0.422973  0.527885
O497  O  0.475427  0.475427  0.475427
O498  O  0.475427  0.475427  0.580343
O499  O  0.475427  0.580343  0.475427
O500  O  0.580343  0.475427  0.475427
O501  O  0.580343  0.580343  0.580343
O502  O  0.580343  0.475427  0.580343
O503  O  0.580343  0.580343  0.475427
O504  O  0.475427  0.580343  0.580343
Hf253  Hf  0.422973  0.422973  0.632801
Hf254  Hf  0.527885  0.527885  0.632801
Hf255  Hf  0.422973  0.527885  0.737713
Hf256  Hf  0.527885  0.422973  0.737713
O505  O  0.475427  0.475427  0.685255
O506  O  0.475427  0.475427  0.790172
O507  O  0.475427  0.580343  0.685255
O508  O  0.580343  0.475427  0.685255
O509  O  0.580343  0.580343  0.790172
O510  O  0.580343  0.475427  0.790172
O511  O  0.580343  0.580343  0.685255
O512  O  0.475427  0.580343  0.790172
Hf257  Hf  0.422973  0.422973  0.842630
Hf258  Hf  0.527885  0.527885  0.842630
Hf259  Hf  0.422973  0.527885  0.947542
Hf260  Hf  0.527885  0.422973  0.947542
O513  O  0.475427  0.475427  0.895084
O514  O  0.475427  0.475427  1.000000
O515  O  0.475427  0.580343  0.895084
O516  O  0.580343  0.475427  0.895084
O517  O  0.580343  0.580343  1.000000
O518  O  0.580343  0.475427  1.000000
O519  O  0.580343  0.580343  0.895084
O520  O  0.475427  0.580343  1.000000
Hf261  Hf  0.422973  0.632801  1.052458
Hf262  Hf  0.527885  0.737713  1.052458
Hf263  Hf  0.422973  0.737713  0.108229
Hf264  Hf  0.527885  0.632801  0.108229
O521  O  0.475427  0.685255  0.055772
O522  O  0.475427  0.685255  0.160686
O523  O  0.475427  0.790172  0.055772
O524  O  0.580343  0.685255  0.055772
O525  O  0.580343  0.790172  0.160686
O526  O  0.580343  0.685255  0.160686
O527  O  0.580343  0.790172  0.055772
O528  O  0.475427  0.790172  0.160686
Hf265  Hf  0.422973  0.632801  0.213143
Hf266  Hf  0.527885  0.737713  0.213143
Hf267  Hf  0.422973  0.737713  0.318057
Hf268  Hf  0.527885  0.632801  0.318057
O529  O  0.475427  0.685255  0.265600
O530  O  0.475427  0.685255  0.370514
O531  O  0.475427  0.790172  0.265600
O532  O  0.580343  0.685255  0.265600
O533  O  0.580343  0.790172  0.370514
O534  O  0.580343  0.685255  0.370514
O535  O  0.580343  0.790172  0.265600
O536  O  0.475427  0.790172  0.370514
Hf269  Hf  0.422973  0.632801  0.422973
Hf270  Hf  0.527885  0.737713  0.422973
Hf271  Hf  0.422973  0.737713  0.527885
Hf272  Hf  0.527885  0.632801  0.527885
O537  O  0.475427  0.685255  0.475427
O538  O  0.475427  0.685255  0.580343
O539  O  0.475427  0.790172  0.475427
O540  O  0.580343  0.685255  0.475427
O541  O  0.580343  0.790172  0.580343
O542  O  0.580343  0.685255  0.580343
O543  O  0.580343  0.790172  0.475427
O544  O  0.475427  0.790172  0.580343
Hf273  Hf  0.422973  0.632801  0.632801
Hf274  Hf  0.527885  0.737713  0.632801
Hf275  Hf  0.422973  0.737713  0.737713
Hf276  Hf  0.527885  0.632801  0.737713
O545  O  0.475427  0.685255  0.685255
O546  O  0.475427  0.685255  0.790172
O547  O  0.475427  0.790172  0.685255
O548  O  0.580343  0.685255  0.685255
O549  O  0.580343  0.790172  0.790172
O550  O  0.580343  0.685255  0.790172
O551  O  0.580343  0.790172  0.685255
O552  O  0.475427  0.790172  0.790172
Hf277  Hf  0.422973  0.632801  0.842630
Hf278  Hf  0.527885  0.737713  0.842630
Hf279  Hf  0.422973  0.737713  0.947542
Hf280  Hf  0.527885  0.632801  0.947542
O553  O  0.475427  0.685255  0.895084
O554  O  0.475427  0.685255  1.000000
O555  O  0.475427  0.790172  0.895084
O556  O  0.580343  0.685255  0.895084
O557  O  0.580343  0.790172  1.000000
O558  O  0.580343  0.685255  1.000000
O559  O  0.580343  0.790172  0.895084
O560  O  0.475427  0.790172  1.000000
Hf281  Hf  0.422973  0.842630  1.052458
Hf282  Hf  0.527885  0.947542  1.052458
Hf283  Hf  0.422973  0.947542  0.108229
Hf284  Hf  0.527885  0.842630  0.108229
O561  O  0.475427  0.895084  0.055772
O562  O  0.475427  0.895084  0.160686
O563  O  0.475427  1.000000  0.055772
O564  O  0.580343  0.895084  0.055772
O565  O  0.580343  1.000000  0.160686
O566  O  0.580343  0.895084  0.160686
O567  O  0.580343  1.000000  0.055772
O568  O  0.475427  1.000000  0.160686
Hf285  Hf  0.422973  0.842630  0.213143
Hf286  Hf  0.527885  0.947542  0.213143
Hf287  Hf  0.422973  0.947542  0.318057
Hf288  Hf  0.527885  0.842630  0.318057
O569  O  0.475427  0.895084  0.265600
O570  O  0.475427  0.895084  0.370514
O571  O  0.475427  1.000000  0.265600
O572  O  0.580343  0.895084  0.265600
O573  O  0.580343  1.000000  0.370514
O574  O  0.580343  0.895084  0.370514
O575  O  0.580343  1.000000  0.265600
O576  O  0.475427  1.000000  0.370514
Hf289  Hf  0.422973  0.842630  0.422973
Hf290  Hf  0.527885  0.947542  0.422973
Hf291  Hf  0.422973  0.947542  0.527885
Hf292  Hf  0.527885  0.842630  0.527885
O577  O  0.475427  0.895084  0.475427
O578  O  0.475427  0.895084  0.580343
O579  O  0.475427  1.000000  0.475427
O580  O  0.580343  0.895084  0.475427
O581  O  0.580343  1.000000  0.580343
O582  O  0.580343  0.895084  0.580343
O583  O  0.580343  1.000000  0.475427
O584  O  0.475427  1.000000  0.580343
Hf293  Hf  0.422973  0.842630  0.632801
Hf294  Hf  0.527885  0.947542  0.632801
Hf295  Hf  0.422973  0.947542  0.737713
Hf296  Hf  0.527885  0.842630  0.737713
O585  O  0.475427  0.895084  0.685255
O586  O  0.475427  0.895084  0.790172
O587  O  0.475427  1.000000  0.685255
O588  O  0.580343  0.895084  0.685255
O589  O  0.580343  1.000000  0.790172
O590  O  0.580343  0.895084  0.790172
O591  O  0.580343  1.000000  0.685255
O592  O  0.475427  1.000000  0.790172
Hf297  Hf  0.422973  0.842630  0.842630
Hf298  Hf  0.527885  0.947542  0.842630
Hf299  Hf  0.422973  0.947542  0.947542
Hf300  Hf  0.527885  0.842630  0.947542
O593  O  0.475427  0.895084  0.895084
O594  O  0.475427  0.895084  1.000000
O595  O  0.475427  1.000000  0.895084
O596  O  0.580343  0.895084  0.895084
O597  O  0.580343  1.000000  1.000000
O598  O  0.580343  0.895084  1.000000
O599  O  0.580343  1.000000  0.895084
O600  O  0.475427  1.000000  1.000000
Hf301  Hf  0.632801  1.052458  1.052458
Hf302  Hf  0.737713  0.108229  1.052458
Hf303  Hf  0.632801  0.108229  0.108229
Hf304  Hf  0.737713  1.052458  0.108229
O601  O  0.685255  0.055772  0.055772
O602  O  0.685255  0.055772  0.160686
O603  O  0.685255  0.160686  0.055772
O604  O  0.790172  0.055772  0.055772
O605  O  0.790172  0.160686  0.160686
O606  O  0.790172  0.055772  0.160686
O607  O  0.790172  0.160686  0.055772
O608  O  0.685255  0.160686  0.160686
Hf305  Hf  0.632801  1.052458  0.213143
Hf306  Hf  0.737713  0.108229  0.213143
Hf307  Hf  0.632801  0.108229  0.318057
Hf308  Hf  0.737713  1.052458  0.318057
O609  O  0.685255  0.055772  0.265600
O610  O  0.685255  0.055772  0.370514
O611  O  0.685255  0.160686  0.265600
O612  O  0.790172  0.055772  0.265600
O613  O  0.790172  0.160686  0.370514
O614  O  0.790172  0.055772  0.370514
O615  O  0.790172  0.160686  0.265600
O616  O  0.685255  0.160686  0.370514
Hf309  Hf  0.632801  1.052458  0.422973
Hf310  Hf  0.737713  0.108229  0.422973
Hf311  Hf  0.632801  0.108229  0.527885
Hf312  Hf  0.737713  1.052458  0.527885
O617  O  0.685255  0.055772  0.475427
O618  O  0.685255  0.055772  0.580343
O619  O  0.685255  0.160686  0.475427
O620  O  0.790172  0.055772  0.475427
O621  O  0.790172  0.160686  0.580343
O622  O  0.790172  0.055772  0.580343
O623  O  0.790172  0.160686  0.475427
O624  O  0.685255  0.160686  0.580343
Hf313  Hf  0.632801  1.052458  0.632801
Hf314  Hf  0.737713  0.108229  0.632801
Hf315  Hf  0.632801  0.108229  0.737713
Hf316  Hf  0.737713  1.052458  0.737713
O625  O  0.685255  0.055772  0.685255
O626  O  0.685255  0.055772  0.790172
O627  O  0.685255  0.160686  0.685255
O628  O  0.790172  0.055772  0.685255
O629  O  0.790172  0.160686  0.790172
O630  O  0.790172  0.055772  0.790172
O631  O  0.790172  0.160686  0.685255
O632  O  0.685255  0.160686  0.790172
Hf317  Hf  0.632801  1.052458  0.842630
Hf318  Hf  0.737713  0.108229  0.842630
Hf319  Hf  0.632801  0.108229  0.947542
Hf320  Hf  0.737713  1.052458  0.947542
O633  O  0.685255  0.055772  0.895084
O634  O  0.685255  0.055772  1.000000
O635  O  0.685255  0.160686  0.895084
O636  O  0.790172  0.055772  0.895084
O637  O  0.790172  0.160686  1.000000
O638  O  0.790172  0.055772  1.000000
O639  O  0.790172  0.160686  0.895084
O640  O  0.685255  0.160686  1.000000
Hf321  Hf  0.632801  0.213143  1.052458
Hf322  Hf  0.737713  0.318057  1.052458
Hf323  Hf  0.632801  0.318057  0.108229
Hf324  Hf  0.737713  0.213143  0.108229
O641  O  0.685255  0.265600  0.055772
O642  O  0.685255  0.265600  0.160686
O643  O  0.685255  0.370514  0.055772
O644  O  0.790172  0.265600  0.055772
O645  O  0.790172  0.370514  0.160686
O646  O  0.790172  0.265600  0.160686
O647  O  0.790172  0.370514  0.055772
O648  O  0.685255  0.370514  0.160686
Hf325  Hf  0.632801  0.213143  0.213143
Hf326  Hf  0.737713  0.318057  0.213143
Hf327  Hf  0.632801  0.318057  0.318057
Hf328  Hf  0.737713  0.213143  0.318057
O649  O  0.685255  0.265600  0.265600
O650  O  0.685255  0.265600  0.370514
O651  O  0.685255  0.370514  0.265600
O652  O  0.790172  0.265600  0.265600
O653  O  0.790172  0.370514  0.370514
O654  O  0.790172  0.265600  0.370514
O655  O  0.790172  0.370514  0.265600
O656  O  0.685255  0.370514  0.370514
Hf329  Hf  0.632801  0.213143  0.422973
Hf330  Hf  0.737713  0.318057  0.422973
Hf331  Hf  0.632801  0.318057  0.527885
Hf332  Hf  0.737713  0.213143  0.527885
O657  O  0.685255  0.265600  0.475427
O658  O  0.685255  0.265600  0.580343
O659  O  0.685255  0.370514  0.475427
O660  O  0.790172  0.265600  0.475427
O661  O  0.790172  0.370514  0.580343
O662  O  0.790172  0.265600  0.580343
O663  O  0.790172  0.370514  0.475427
O664  O  0.685255  0.370514  0.580343
Hf333  Hf  0.632801  0.213143  0.632801
Hf334  Hf  0.737713  0.318057  0.632801
Hf335  Hf  0.632801  0.318057  0.737713
Hf336  Hf  0.737713  0.213143  0.737713
O665  O  0.685255  0.265600  0.685255
O666  O  0.685255  0.265600  0.790172
O667  O  0.685255  0.370514  0.685255
O668  O  0.790172  0.265600  0.685255
O669  O  0.790172  0.370514  0.790172
O670  O  0.790172  0.265600  0.790172
O671  O  0.790172  0.370514  0.685255
O672  O  0.685255  0.370514  0.790172
Hf337  Hf  0.632801  0.213143  0.842630
Hf338  Hf  0.737713  0.318057  0.842630
Hf339  Hf  0.632801  0.318057  0.947542
Hf340  Hf  0.737713  0.213143  0.947542
O673  O  0.685255  0.265600  0.895084
O674  O  0.685255  0.265600  1.000000
O675  O  0.685255  0.370514  0.895084
O676  O  0.790172  0.265600  0.895084
O677  O  0.790172  0.370514  1.000000
O678  O  0.790172  0.265600  1.000000
O679  O  0.790172  0.370514  0.895084
O680  O  0.685255  0.370514  1.000000
Hf341  Hf  0.632801  0.422973  1.052458
Hf342  Hf  0.737713  0.527885  1.052458
Hf343  Hf  0.632801  0.527885  0.108229
Hf344  Hf  0.737713  0.422973  0.108229
O681  O  0.685255  0.475427  0.055772
O682  O  0.685255  0.475427  0.160686
O683  O  0.685255  0.580343  0.055772
O684  O  0.790172  0.475427  0.055772
O685  O  0.790172  0.580343  0.160686
O686  O  0.790172  0.475427  0.160686
O687  O  0.790172  0.580343  0.055772
O688  O  0.685255  0.580343  0.160686
Hf345  Hf  0.632801  0.422973  0.213143
Hf346  Hf  0.737713  0.527885  0.213143
Hf347  Hf  0.632801  0.527885  0.318057
Hf348  Hf  0.737713  0.422973  0.318057
O689  O  0.685255  0.475427  0.265600
O690  O  0.685255  0.475427  0.370514
O691  O  0.685255  0.580343  0.265600
O692  O  0.790172  0.475427  0.265600
O693  O  0.790172  0.580343  0.370514
O694  O  0.790172  0.475427  0.370514
O695  O  0.790172  0.580343  0.265600
O696  O  0.685255  0.580343  0.370514
Hf349  Hf  0.632801  0.422973  0.422973
Hf350  Hf  0.737713  0.527885  0.422973
Hf351  Hf  0.632801  0.527885  0.527885
Hf352  Hf  0.737713  0.422973  0.527885
O697  O  0.685255  0.475427  0.475427
O698  O  0.685255  0.475427  0.580343
O699  O  0.685255  0.580343  0.475427
O700  O  0.790172  0.475427  0.475427
O701  O  0.790172  0.580343  0.580343
O702  O  0.790172  0.475427  0.580343
O703  O  0.790172  0.580343  0.475427
O704  O  0.685255  0.580343  0.580343
Hf353  Hf  0.632801  0.422973  0.632801
Hf354  Hf  0.737713  0.527885  0.632801
Hf355  Hf  0.632801  0.527885  0.737713
Hf356  Hf  0.737713  0.422973  0.737713
O705  O  0.685255  0.475427  0.685255
O706  O  0.685255  0.475427  0.790172
O707  O  0.685255  0.580343  0.685255
O708  O  0.790172  0.475427  0.685255
O709  O  0.790172  0.580343  0.790172
O710  O  0.790172  0.475427  0.790172
O711  O  0.790172  0.580343  0.685255
O712  O  0.685255  0.580343  0.790172
Hf357  Hf  0.632801  0.422973  0.842630
Hf358  Hf  0.737713  0.527885  0.842630
Hf359  Hf  0.632801  0.527885  0.947542
Hf360  Hf  0.737713  0.422973  0.947542
O713  O  0.685255  0.475427  0.895084
O714  O  0.685255  0.475427  1.000000
O715  O  0.685255  0.580343  0.895084
O716  O  0.790172  0.475427  0.895084
O717  O  0.790172  0.580343  1.000000
O718  O  0.790172  0.475427  1.000000
O719  O  0.790172  0.580343  0.895084
O720  O  0.685255  0.580343  1.000000
Hf361  Hf  0.632801  0.632801  1.052458
Hf362  Hf  0.737713  0.737713  1.052458
Hf363  Hf  0.632801  0.737713  0.108229
Hf364  Hf  0.737713  0.632801  0.108229
O721  O  0.685255  0.685255  0.055772
O722  O  0.685255  0.685255  0.160686
O723  O  0.685255  0.790172  0.055772
O724  O  0.790172  0.685255  0.055772
O725  O  0.790172  0.790172  0.160686
O726  O  0.790172  0.685255  0.160686
O727  O  0.790172  0.790172  0.055772
O728  O  0.685255  0.790172  0.160686
Hf365  Hf  0.632801  0.632801  0.213143
Hf366  Hf  0.737713  0.737713  0.213143
Hf367  Hf  0.632801  0.737713  0.318057
Hf368  Hf  0.737713  0.632801  0.318057
O729  O  0.685255  0.685255  0.265600
O730  O  0.685255  0.685255  0.370514
O731  O  0.685255  0.790172  0.265600
O732  O  0.790172  0.685255  0.265600
O733  O  0.790172  0.790172  0.370514
O734  O  0.790172  0.685255  0.370514
O735  O  0.790172  0.790172  0.265600
O736  O  0.685255  0.790172  0.370514
Hf369  Hf  0.632801  0.632801  0.422973
Hf370  Hf  0.737713  0.737713  0.422973
Hf371  Hf  0.632801  0.737713  0.527885
Hf372  Hf  0.737713  0.632801  0.527885
O737  O  0.685255  0.685255  0.475427
O738  O  0.685255  0.685255  0.580343
O739  O  0.685255  0.790172  0.475427
O740  O  0.790172  0.685255  0.475427
O741  O  0.790172  0.790172  0.580343
O742  O  0.790172  0.685255  0.580343
O743  O  0.790172  0.790172  0.475427
O744  O  0.685255  0.790172  0.580343
Hf373  Hf  0.632801  0.632801  0.632801
Hf374  Hf  0.737713  0.737713  0.632801
Hf375  Hf  0.632801  0.737713  0.737713
Hf376  Hf  0.737713  0.632801  0.737713
O745  O  0.685255  0.685255  0.685255
O746  O  0.685255  0.685255  0.790172
O747  O  0.685255  0.790172  0.685255
O748  O  0.790172  0.685255  0.685255
O749  O  0.790172  0.790172  0.790172
O750  O  0.790172  0.685255  0.790172
O751  O  0.790172  0.790172  0.685255
O752  O  0.685255  0.790172  0.790172
Hf377  Hf  0.632801  0.632801  0.842630
Hf378  Hf  0.737713  0.737713  0.842630
Hf379  Hf  0.632801  0.737713  0.947542
Hf380  Hf  0.737713  0.632801  0.947542
O753  O  0.685255  0.685255  0.895084
O754  O  0.685255  0.685255  1.000000
O755  O  0.685255  0.790172  0.895084
O756  O  0.790172  0.685255  0.895084
O757  O  0.790172  0.790172  1.000000
O758  O  0.790172  0.685255  1.000000
O759  O  0.790172  0.790172  0.895084
O760  O  0.685255  0.790172  1.000000
Hf381  Hf  0.632801  0.842630  1.052458
Hf382  Hf  0.737713  0.947542  1.052458
Hf383  Hf  0.632801  0.947542  0.108229
Hf384  Hf  0.737713  0.842630  0.108229
O761  O  0.685255  0.895084  0.055772
O762  O  0.685255  0.895084  0.160686
O763  O  0.685255  1.000000  0.055772
O764  O  0.790172  0.895084  0.055772
O765  O  0.790172  1.000000  0.160686
O766  O  0.790172  0.895084  0.160686
O767  O  0.790172  1.000000  0.055772
O768  O  0.685255  1.000000  0.160686
Hf385  Hf  0.632801  0.842630  0.213143
Hf386  Hf  0.737713  0.947542  0.213143
Hf387  Hf  0.632801  0.947542  0.318057
Hf388  Hf  0.737713  0.842630  0.318057
O769  O  0.685255  0.895084  0.265600
O770  O  0.685255  0.895084  0.370514
O771  O  0.685255  1.000000  0.265600
O772  O  0.790172  0.895084  0.265600
O773  O  0.790172  1.000000  0.370514
O774  O  0.790172  0.895084  0.370514
O775  O  0.790172  1.000000  0.265600
O776  O  0.685255  1.000000  0.370514
Hf389  Hf  0.632801  0.842630  0.422973
Hf390  Hf  0.737713  0.947542  0.422973
Hf391  Hf  0.632801  0.947542  0.527885
Hf392  Hf  0.737713  0.842630  0.527885
O777  O  0.685255  0.895084  0.475427
O778  O  0.685255  0.895084  0.580343
O779  O  0.685255  1.000000  0.475427
O780  O  0.790172  0.895084  0.475427
O781  O  0.790172  1.000000  0.580343
O782  O  0.790172  0.895084  0.580343
O783  O  0.790172  1.000000  0.475427
O784  O  0.685255  1.000000  0.580343
Hf393  Hf  0.632801  0.842630  0.632801
Hf394  Hf  0.737713  0.947542  0.632801
Hf395  Hf  0.632801  0.947542  0.737713
Hf396  Hf  0.737713  0.842630  0.737713
O785  O  0.685255  0.895084  0.685255
O786  O  0.685255  0.895084  0.790172
O787  O  0.685255  1.000000  0.685255
O788  O  0.790172  0.895084  0.685255
O789  O  0.790172  1.000000  0.790172
O790  O  0.790172  0.895084  0.790172
O791  O  0.790172  1.000000  0.685255
O792  O  0.685255  1.000000  0.790172
Hf397  Hf  0.632801  0.842630  0.842630
Hf398  Hf  0.737713  0.947542  0.842630
Hf399  Hf  0.632801  0.947542  0.947542
Hf400  Hf  0.737713  0.842630  0.947542
O793  O  0.685255  0.895084  0.895084
O794  O  0.685255  0.895084  1.000000
O795  O  0.685255  1.000000  0.895084
O796  O  0.790172  0.895084  0.895084
O797  O  0.790172  1.000000  1.000000
O798  O  0.790172  0.895084  1.000000
O799  O  0.790172  1.000000  0.895084
O800  O  0.685255  1.000000  1.000000
Hf401  Hf  0.842630  1.052458  1.052458
Hf402  Hf  0.947542  0.108229  1.052458
Hf403  Hf  0.842630  0.108229  0.108229
Hf404  Hf  0.947542  1.052458  0.108229
O801  O  0.895084  0.055772  0.055772
O802  O  0.895084  0.055772  0.160686
O803  O  0.895084  0.160686  0.055772
O804  O  1.000000  0.055772  0.055772
O805  O  1.000000  0.160686  0.160686
O806  O  1.000000  0.055772  0.160686
O807  O  1.000000  0.160686  0.055772
O808  O  0.895084  0.160686  0.160686
Hf405  Hf  0.842630  1.052458  0.213143
Hf406  Hf  0.947542  0.108229  0.213143
Hf407  Hf  0.842630  0.108229  0.318057
Hf408  Hf  0.947542  1.052458  0.318057
O809  O  0.895084  0.055772  0.265600
O810  O  0.895084  0.055772  0.370514
O811  O  0.895084  0.160686  0.265600
O812  O  1.000000  0.055772  0.265600
O813  O  1.000000  0.160686  0.370514
O814  O  1.000000  0.055772  0.370514
O815  O  1.000000  0.160686  0.265600
O816  O  0.895084  0.160686  0.370514
Hf409  Hf  0.842630  1.052458  0.422973
Hf410  Hf  0.947542  0.108229  0.422973
Hf411  Hf  0.842630  0.108229  0.527885
Hf412  Hf  0.947542  1.052458  0.527885
O817  O  0.895084  0.055772  0.475427
O818  O  0.895084  0.055772  0.580343
O819  O  0.895084  0.160686  0.475427
O820  O  1.000000  0.055772  0.475427
O821  O  1.000000  0.160686  0.580343
O822  O  1.000000  0.055772  0.580343
O823  O  1.000000  0.160686  0.475427
O824  O  0.895084  0.160686  0.580343
Hf413  Hf  0.842630  1.052458  0.632801
Hf414  Hf  0.947542  0.108229  0.632801
Hf415  Hf  0.842630  0.108229  0.737713
Hf416  Hf  0.947542  1.052458  0.737713
O825  O  0.895084  0.055772  0.685255
O826  O  0.895084  0.055772  0.790172
O827  O  0.895084  0.160686  0.685255
O828  O  1.000000  0.055772  0.685255
O829  O  1.000000  0.160686  0.790172
O830  O  1.000000  0.055772  0.790172
O831  O  1.000000  0.160686  0.685255
O832  O  0.895084  0.160686  0.790172
Hf417  Hf  0.842630  1.052458  0.842630
Hf418  Hf  0.947542  0.108229  0.842630
Hf419  Hf  0.842630  0.108229  0.947542
Hf420  Hf  0.947542  1.052458  0.947542
O833  O  0.895084  0.055772  0.895084
O834  O  0.895084  0.055772  1.000000
O835  O  0.895084  0.160686  0.895084
O836  O  1.000000  0.055772  0.895084
O837  O  1.000000  0.160686  1.000000
O838  O  1.000000  0.055772  1.000000
O839  O  1.000000  0.160686  0.895084
O840  O  0.895084  0.160686  1.000000
Hf421  Hf  0.842630  0.213143  1.052458
Hf422  Hf  0.947542  0.318057  1.052458
Hf423  Hf  0.842630  0.318057  0.108229
Hf424  Hf  0.947542  0.213143  0.108229
O841  O  0.895084  0.265600  0.055772
O842  O  0.895084  0.265600  0.160686
O843  O  0.895084  0.370514  0.055772
O844  O  1.000000  0.265600  0.055772
O845  O  1.000000  0.370514  0.160686
O846  O  1.000000  0.265600  0.160686
O847  O  1.000000  0.370514  0.055772
O848  O  0.895084  0.370514  0.160686
Hf425  Hf  0.842630  0.213143  0.213143
Hf426  Hf  0.947542  0.318057  0.213143
Hf427  Hf  0.842630  0.318057  0.318057
Hf428  Hf  0.947542  0.213143  0.318057
O849  O  0.895084  0.265600  0.265600
O850  O  0.895084  0.265600  0.370514
O851  O  0.895084  0.370514  0.265600
O852  O  1.000000  0.265600  0.265600
O853  O  1.000000  0.370514  0.370514
O854  O  1.000000  0.265600  0.370514
O855  O  1.000000  0.370514  0.265600
O856  O  0.895084  0.370514  0.370514
Hf429  Hf  0.842630  0.213143  0.422973
Hf430  Hf  0.947542  0.318057  0.422973
Hf431  Hf  0.842630  0.318057  0.527885
Hf432  Hf  0.947542  0.213143  0.527885
O857  O  0.895084  0.265600  0.475427
O858  O  0.895084  0.265600  0.580343
O859  O  0.895084  0.370514  0.475427
O860  O  1.000000  0.265600  0.475427
O861  O  1.000000  0.370514  0.580343
O862  O  1.000000  0.265600  0.580343
O863  O  1.000000  0.370514  0.475427
O864  O  0.895084  0.370514  0.580343
Hf433  Hf  0.842630  0.213143  0.632801
Hf434  Hf  0.947542  0.318057  0.632801
Hf435  Hf  0.842630  0.318057  0.737713
Hf436  Hf  0.947542  0.213143  0.737713
O865  O  0.895084  0.265600  0.685255
O866  O  0.895084  0.265600  0.790172
O867  O  0.895084  0.370514  0.685255
O868  O  1.000000  0.265600  0.685255
O869  O  1.000000  0.370514  0.790172
O870  O  1.000000  0.265600  0.790172
O871  O  1.000000  0.370514  0.685255
O872  O  0.895084  0.370514  0.790172
Hf437  Hf  0.842630  0.213143  0.842630
Hf438  Hf  0.947542  0.318057  0.842630
Hf439  Hf  0.842630  0.318057  0.947542
Hf440  Hf  0.947542  0.213143  0.947542
O873  O  0.895084  0.265600  0.895084
O874  O  0.895084  0.265600  1.000000
O875  O  0.895084  0.370514  0.895084
O876  O  1.000000  0.265600  0.895084
O877  O  1.000000  0.370514  1.000000
O878  O  1.000000  0.265600  1.000000
O879  O  1.000000  0.370514  0.895084
O880  O  0.895084  0.370514  1.000000
Hf441  Hf  0.842630  0.422973  1.052458
Hf442  Hf  0.947542  0.527885  1.052458
Hf443  Hf  0.842630  0.527885  0.108229
Hf444  Hf  0.947542  0.422973  0.108229
O881  O  0.895084  0.475427  0.055772
O882  O  0.895084  0.475427  0.160686
O883  O  0.895084  0.580343  0.055772
O884  O  1.000000  0.475427  0.055772
O885  O  1.000000  0.580343  0.160686
O886  O  1.000000  0.475427  0.160686
O887  O  1.000000  0.580343  0.055772
O888  O  0.895084  0.580343  0.160686
Hf445  Hf  0.842630  0.422973  0.213143
Hf446  Hf  0.947542  0.527885  0.213143
Hf447  Hf  0.842630  0.527885  0.318057
Hf448  Hf  0.947542  0.422973  0.318057
O889  O  0.895084  0.475427  0.265600
O890  O  0.895084  0.475427  0.370514
O891  O  0.895084  0.580343  0.265600
O892  O  1.000000  0.475427  0.265600
O893  O  1.000000  0.580343  0.370514
O894  O  1.000000  0.475427  0.370514
O895  O  1.000000  0.580343  0.265600
O896  O  0.895084  0.580343  0.370514
Hf449  Hf  0.842630  0.422973  0.422973
Hf450  Hf  0.947542  0.527885  0.422973
Hf451  Hf  0.842630  0.527885  0.527885
Hf452  Hf  0.947542  0.422973  0.527885
O897  O  0.895084  0.475427  0.475427
O898  O  0.895084  0.475427  0.580343
O899  O  0.895084  0.580343  0.475427
O900  O  1.000000  0.475427  0.475427
O901  O  1.000000  0.580343  0.580343
O902  O  1.000000  0.475427  0.580343
O903  O  1.000000  0.580343  0.475427
O904  O  0.895084  0.580343  0.580343
Hf453  Hf  0.842630  0.422973  0.632801
Hf454  Hf  0.947542  0.527885  0.632801
Hf455  Hf  0.842630  0.527885  0.737713
Hf456  Hf  0.947542  0.422973  0.737713
O905  O  0.895084  0.475427  0.685255
O906  O  0.895084  0.475427  0.790172
O907  O  0.895084  0.580343  0.685255
O908  O  1.000000  0.475427  0.685255
O909  O  1.000000  0.580343  0.790172
O910  O  1.000000  0.475427  0.790172
O911  O  1.000000  0.580343  0.685255
O912  O  0.895084  0.580343  0.790172
Hf457  Hf  0.842630  0.422973  0.842630
Hf458  Hf  0.947542  0.527885  0.842630
Hf459  Hf  0.842630  0.527885  0.947542
Hf460  Hf  0.947542  0.422973  0.947542
O913  O  0.895084  0.475427  0.895084
O914  O  0.895084  0.475427  1.000000
O915  O  0.895084  0.580343  0.895084
O916  O  1.000000  0.475427  0.895084
O917  O  1.000000  0.580343  1.000000
O918  O  1.000000  0.475427  1.000000
O919  O  1.000000  0.580343  0.895084
O920  O  0.895084  0.580343  1.000000
Hf461  Hf  0.842630  0.632801  1.052458
Hf462  Hf  0.947542  0.737713  1.052458
Hf463  Hf  0.842630  0.737713  0.108229
Hf464  Hf  0.947542  0.632801  0.108229
O921  O  0.895084  0.685255  0.055772
O922  O  0.895084  0.685255  0.160686
O923  O  0.895084  0.790172  0.055772
O924  O  1.000000  0.685255  0.055772
O925  O  1.000000  0.790172  0.160686
O926  O  1.000000  0.685255  0.160686
O927  O  1.000000  0.790172  0.055772
O928  O  0.895084  0.790172  0.160686
Hf465  Hf  0.842630  0.632801  0.213143
Hf466  Hf  0.947542  0.737713  0.213143
Hf467  Hf  0.842630  0.737713  0.318057
Hf468  Hf  0.947542  0.632801  0.318057
O929  O  0.895084  0.685255  0.265600
O930  O  0.895084  0.685255  0.370514
O931  O  0.895084  0.790172  0.265600
O932  O  1.000000  0.685255  0.265600
O933  O  1.000000  0.790172  0.370514
O934  O  1.000000  0.685255  0.370514
O935  O  1.000000  0.790172  0.265600
O936  O  0.895084  0.790172  0.370514
Hf469  Hf  0.842630  0.632801  0.422973
Hf470  Hf  0.947542  0.737713  0.422973
Hf471  Hf  0.842630  0.737713  0.527885
Hf472  Hf  0.947542  0.632801  0.527885
O937  O  0.895084  0.685255  0.475427
O938  O  0.895084  0.685255  0.580343
O939  O  0.895084  0.790172  0.475427
O940  O  1.000000  0.685255  0.475427
O941  O  1.000000  0.790172  0.580343
O942  O  1.000000  0.685255  0.580343
O943  O  1.000000  0.790172  0.475427
O944  O  0.895084  0.790172  0.580343
Hf473  Hf  0.842630  0.632801  0.632801
Hf474  Hf  0.947542  0.737713  0.632801
Hf475  Hf  0.842630  0.737713  0.737713
Hf476  Hf  0.947542  0.632801  0.737713
O945  O  0.895084  0.685255  0.685255
O946  O  0.895084  0.685255  0.790172
O947  O  0.895084  0.790172  0.685255
O948  O  1.000000  0.685255  0.685255
O949  O  1.000000  0.790172  0.790172
O950  O  1.000000  0.685255  0.790172
O951  O  1.000000  0.790172  0.685255
O952  O  0.895084  0.790172  0.790172
Hf477  Hf  0.842630  0.632801  0.842630
Hf478  Hf  0.947542  0.737713  0.842630
Hf479  Hf  0.842630  0.737713  0.947542
Hf480  Hf  0.947542  0.632801  0.947542
O953  O  0.895084  0.685255  0.895084
O954  O  0.895084  0.685255  1.000000
O955  O  0.895084  0.790172  0.895084
O956  O  1.000000  0.685255  0.895084
O957  O  1.000000  0.790172  1.000000
O958  O  1.000000  0.685255  1.000000
O959  O  1.000000  0.790172  0.895084
O960  O  0.895084  0.790172  1.000000
Hf481  Hf  0.842630  0.842630  1.052458
Hf482  Hf  0.947542  0.947542  1.052458
Hf483  Hf  0.842630  0.947542  0.108229
Hf484  Hf  0.947542  0.842630  0.108229
O961  O  0.895084  0.895084  0.055772
O962  O  0.895084  0.895084  0.160686
O963  O  0.895084  1.000000  0.055772
O964  O  1.000000  0.895084  0.055772
O965  O  1.000000  1.000000  0.160686
O966  O  1.000000  0.895084  0.160686
O967  O  1.000000  1.000000  0.055772
O968  O  0.895084  1.000000  0.160686
Hf485  Hf  0.842630  0.842630  0.213143
Hf486  Hf  0.947542  0.947542  0.213143
Hf487  Hf  0.842630  0.947542  0.318057
Hf488  Hf  0.947542  0.842630  0.318057
O969  O  0.895084  0.895084  0.265600
O970  O  0.895084  0.895084  0.370514
O971  O  0.895084  1.000000  0.265600
O972  O  1.000000  0.895084  0.265600
O973  O  1.000000  1.000000  0.370514
O974  O  1.000000  0.895084  0.370514
O975  O  1.000000  1.000000  0.265600
O976  O  0.895084  1.000000  0.370514
Hf489  Hf  0.842630  0.842630  0.422973
Hf490  Hf  0.947542  0.947542  0.422973
Hf491  Hf  0.842630  0.947542  0.527885
Hf492  Hf  0.947542  0.842630  0.527885
O977  O  0.895084  0.895084  0.475427
O978  O  0.895084  0.895084  0.580343
O979  O  0.895084  1.000000  0.475427
O980  O  1.000000  0.895084  0.475427
O981  O  1.000000  1.000000  0.580343
O982  O  1.000000  0.895084  0.580343
O983  O  1.000000  1.000000  0.475427
O984  O  0.895084  1.000000  0.580343
Hf493  Hf  0.842630  0.842630  0.632801
Hf494  Hf  0.947542  0.947542  0.632801
Hf495  Hf  0.842630  0.947542  0.737713
Hf496  Hf  0.947542  0.842630  0.737713
O985  O  0.895084  0.895084  0.685255
O986  O  0.895084  0.895084  0.790172
O987  O  0.895084  1.000000  0.685255
O988  O  1.000000  0.895084  0.685255
O989  O  1.000000  1.000000  0.790172
O990  O  1.000000  0.895084  0.790172
O991  O  1.000000  1.000000  0.685255
O992  O  0.895084  1.000000  0.790172
Hf497  Hf  0.842630  0.842630  0.842630
Hf498  Hf  0.947542  0.947542  0.842630
Hf499  Hf  0.842630  0.947542  0.947542
Hf500  Hf  0.947542  0.842630  0.947542
O993  O  0.895084  0.895084  0.895084
O994  O  0.895084  0.895084  1.000000
O995  O  0.895084  1.000000  0.895084
O996  O  1.000000  0.895084  0.895084
O997  O  1.000000  1.000000  1.000000
O998  O  1.000000  0.895084  1.000000
O999  O  1.000000  1.000000  0.895084
O1000  O  0.895084  1.000000  1.000000
